data_fnc
_audit_creation_date              2020-02-02
_audit_creation_method            'Pymatgen'
_symmetry_space_group_name_H-M    'P1'
_symmetry_Int_Tables_number       1
loop_
_symmetry_equiv_pos_as_xyz
  x,y,z
_cell_length_a                    62.66
_cell_length_b                    62.66
_cell_length_c                    20.0
_cell_angle_alpha                 90.0
_cell_angle_beta                 90.0
_cell_angle_gamma                 120.0
loop_
_atom_site_label
_atom_site_type_symbol
_atom_site_fract_x
_atom_site_fract_y
_atom_site_fract_z
V1     V     0.2465   0.9131   0.1667
V2     V     0.2465   0.9131   0.6667
V3     V     0.4202   0.0   0.0
V4     V     0.4202   0.0   0.5
V5     V     0.3333   0.0869   0.3333
V6     V     0.3333   0.0869   0.8333
V7     V     0.7535   0.0869   0.3333
V8     V     0.7535   0.0869   0.8333
V9     V     0.5798   0.0   0.0
V10     V     0.5798   0.0   0.5
V11     V     0.6667   0.9131   0.1667
V12     V     0.6667   0.9131   0.6667
V13     V     0.3333   0.2465   0.3333
V14     V     0.3333   0.2465   0.8333
V15     V     0.2465   0.3333   0.1667
V16     V     0.2465   0.3333   0.6667
V17     V     0.4202   0.4202   0.0
V18     V     0.4202   0.4202   0.5
V19     V     0.7535   0.6667   0.3333
V20     V     0.7535   0.6667   0.8333
V21     V     0.6667   0.7535   0.1667
V22     V     0.6667   0.7535   0.6667
V23     V     0.5798   0.5798   0.0
V24     V     0.5798   0.5798   0.5
V25     V     0.0869   0.7535   0.1667
V26     V     0.0869   0.7535   0.6667
V27     V     1.0   0.5798   0.0
V28     V     1.0   0.5798   0.5
V29     V     0.9131   0.6667   0.3333
V30     V     0.9131   0.6667   0.8333
V31     V     0.9131   0.2465   0.3333
V32     V     0.9131   0.2465   0.8333
V33     V     1.0   0.4202   0.0
V34     V     1.0   0.4202   0.5
V35     V     0.0869   0.3333   0.1667
V36     V     0.0869   0.3333   0.6667
loop_
_geom_bond_atom_site_label_1
_geom_bond_atom_site_label_2
_geom_bond_distance
_geom_bond_site_symmetry_2
_ccdc_geom_bond_type
V1     V5    10.0   1_565     S
V1     V3    10.0   1_565     S
V1     V2    10.0   .     S
V1     V2    10.0   1_554     S
V1     V25    10.001   .     S
V2     V6    10.0   1_565     S
V2     V4    10.0   1_565     S
V2     V1    10.0   1_556     S
V2     V26    10.001   .     S
V3     V6    10.0   1_554     S
V3     V1    10.0   1_545     S
V3     V4    10.0   .     S
V3     V4    10.0   1_554     S
V3     V9    10.001   .     S
V4     V5    10.0   .     S
V4     V2    10.0   1_545     S
V4     V3    10.0   1_556     S
V4     V10    10.001   .     S
V5     V1    10.0   1_545     S
V5     V6    10.0   1_554     S
V5     V6    10.0   .     S
V5     V13    10.001   .     S
V6     V2    10.0   1_545     S
V6     V3    10.0   1_556     S
V6     V5    10.0   1_556     S
V6     V14    10.001   .     S
V7     V11    10.0   1_545     S
V7     V10    10.0   .     S
V7     V8    10.0   1_554     S
V7     V8    10.0   .     S
V7     V31    10.001   .     S
V8     V12    10.0   1_545     S
V8     V9    10.0   1_556     S
V8     V7    10.0   1_556     S
V8     V32    10.001   .     S
V9     V8    10.0   1_554     S
V9     V11    10.0   1_545     S
V9     V10    10.0   .     S
V9     V10    10.0   1_554     S
V10     V12    10.0   1_545     S
V10     V9    10.0   1_556     S
V11     V7    10.0   1_565     S
V11     V9    10.0   1_565     S
V11     V12    10.0   .     S
V11     V12    10.0   1_554     S
V11     V21    10.001   .     S
V12     V8    10.0   1_565     S
V12     V10    10.0   1_565     S
V12     V11    10.0   1_556     S
V12     V22    10.001   .     S
V13     V15    10.0   .     S
V13     V18    10.0   .     S
V13     V14    10.0   1_554     S
V13     V14    10.0   .     S
V14     V16    10.0   .     S
V14     V17    10.0   1_556     S
V14     V13    10.0   1_556     S
V15     V17    10.0   .     S
V15     V16    10.0   .     S
V15     V16    10.0   1_554     S
V15     V35    10.001   .     S
V16     V18    10.0   .     S
V16     V15    10.0   1_556     S
V16     V36    10.001   .     S
V17     V14    10.0   1_554     S
V17     V18    10.0   .     S
V17     V18    10.0   1_554     S
V17     V23    10.001   .     S
V18     V17    10.0   1_556     S
V18     V24    10.001   .     S
V19     V21    10.0   .     S
V19     V24    10.0   .     S
V19     V20    10.0   1_554     S
V19     V20    10.0   .     S
V19     V29    10.001   .     S
V20     V22    10.0   .     S
V20     V23    10.0   1_556     S
V20     V19    10.0   1_556     S
V20     V30    10.001   .     S
V21     V23    10.0   .     S
V21     V22    10.0   .     S
V21     V22    10.0   1_554     S
V22     V24    10.0   .     S
V22     V21    10.0   1_556     S
V23     V20    10.0   1_554     S
V23     V24    10.0   .     S
V23     V24    10.0   1_554     S
V24     V23    10.0   1_556     S
V25     V29    10.0   1_455     S
V25     V27    10.0   .     S
V25     V26    10.0   .     S
V25     V26    10.0   1_554     S
V26     V30    10.0   1_455     S
V26     V28    10.0   .     S
V26     V25    10.0   1_556     S
V27     V25    10.0   1_655     S
V27     V30    10.0   1_554     S
V27     V28    10.0   1_655     S
V27     V28    10.0   1_654     S
V27     V33    10.001   1_655     S
V28     V26    10.0   1_655     S
V28     V29    10.0   .     S
V28     V27    10.0   1_655     S
V28     V27    10.0   1_656     S
V28     V34    10.001   1_655     S
V29     V25    10.0   1_655     S
V29     V28    10.0   1_655     S
V29     V30    10.0   1_554     S
V29     V30    10.0   .     S
V30     V26    10.0   1_655     S
V30     V27    10.0   1_656     S
V30     V29    10.0   1_556     S
V31     V35    10.0   1_655     S
V31     V34    10.0   1_655     S
V31     V32    10.0   1_554     S
V31     V32    10.0   .     S
V32     V36    10.0   1_655     S
V32     V33    10.0   1_656     S
V32     V31    10.0   1_556     S
V33     V35    10.0   1_655     S
V33     V32    10.0   1_554     S
V33     V34    10.0   1_655     S
V33     V34    10.0   1_654     S
V33     V27    10.001   1_655     S
V34     V36    10.0   1_655     S
V34     V31    10.0   .     S
V34     V33    10.0   1_655     S
V34     V33    10.0   1_656     S
V34     V28    10.001   1_655     S
V35     V31    10.0   1_455     S
V35     V33    10.0   .     S
V35     V36    10.0   .     S
V35     V36    10.0   1_554     S
V36     V32    10.0   1_455     S
V36     V34    10.0   .     S
V36     V35    10.0   1_556     S
