data_icf
_audit_creation_date              2020-02-02
_audit_creation_method            'Pymatgen'
_symmetry_space_group_name_H-M    'P1'
_symmetry_Int_Tables_number       1
loop_
_symmetry_equiv_pos_as_xyz
  x,y,z
_cell_length_a                    31.1087
_cell_length_b                    31.1087
_cell_length_c                    58.9558
_cell_angle_alpha                 90.0
_cell_angle_beta                 90.0
_cell_angle_gamma                 120.0
loop_
_atom_site_label
_atom_site_type_symbol
_atom_site_fract_x
_atom_site_fract_y
_atom_site_fract_z
V1     V     0.0291   0.5715   0.8438
V2     V     0.5425   0.9709   0.8438
V3     V     0.4285   0.4575   0.8438
V4     V     0.2382   0.8758   0.4895
Er5     Er     0.3333   0.6667   0.7515
Er6     Er     0.3333   0.6667   0.5819
V7     V     0.6376   0.7618   0.4895
V8     V     0.7909   0.6957   0.8228
V9     V     0.6957   0.9049   0.1772
V10     V     0.3043   0.0951   0.8228
V11     V     0.2091   0.3043   0.1772
V12     V     0.9049   0.2091   0.8228
Er13     Er     1.0   -0.0   0.9152
Er14     Er     -0.0   1.0   0.0848
V15     V     0.0951   0.7909   0.1772
V16     V     0.9709   0.4285   0.1562
V17     V     0.4575   0.0291   0.1562
V18     V     0.5715   0.5425   0.1562
V19     V     0.7618   0.1242   0.5105
Er20     Er     0.6667   0.3333   0.4181
Er21     Er     0.6667   0.3333   0.2485
V22     V     0.8758   0.6376   0.5105
V23     V     0.1242   0.3624   0.4895
V24     V     0.3624   0.2382   0.5105
V25     V     0.5715   0.0291   0.6562
V26     V     0.4575   0.4285   0.6562
V27     V     0.9709   0.5425   0.6562
V28     V     0.7618   0.6376   0.0105
Er29     Er     0.6667   0.3333   0.7485
Er30     Er     0.6667   0.3333   0.9181
V31     V     0.8758   0.2382   0.0105
V32     V     0.9049   0.6957   0.3228
V33     V     0.3043   0.2091   0.3228
V34     V     0.2091   0.9049   0.6772
V35     V     0.6957   0.7909   0.6772
V36     V     0.0951   0.3043   0.6772
Er37     Er     -0.0   1.0   0.5848
Er38     Er     1.0   -0.0   0.4152
V39     V     0.7909   0.0951   0.3228
V40     V     0.4285   0.9709   0.3438
V41     V     0.5425   0.5715   0.3438
V42     V     0.0291   0.4575   0.3438
V43     V     0.6376   0.8758   0.9895
Er44     Er     0.3333   0.6667   0.0819
Er45     Er     0.3333   0.6667   0.2515
V46     V     0.1242   0.7618   0.9895
V47     V     0.3624   0.1242   0.0105
V48     V     0.2382   0.3624   0.9895
loop_
_geom_bond_atom_site_label_1
_geom_bond_atom_site_label_2
_geom_bond_distance
_geom_bond_site_symmetry_2
_ccdc_geom_bond_type
V1     V46    10.0   .     S
V1     V12    10.0   1_455     S
V1     Er5    10.0   .     S
V1     V8    10.0   1_455     S
V2     V43    10.0   .     S
V2     V10    10.0   1_565     S
V2     Er5    10.0   .     S
V2     V12    10.0   1_565     S
V3     V48    10.0   .     S
V3     V8    10.0   .     S
V3     Er5    10.0   .     S
V3     V10    10.0   .     S
V4     V40    10.0   .     S
V4     V22    10.0   1_455     S
V4     Er6    10.0   .     S
V4     V24    10.0   1_565     S
Er5     Er6    10.0   .     S
Er6     V7    10.0   .     S
Er6     V23    10.0   .     S
V7     V41    10.0   .     S
V7     V19    10.0   1_565     S
V7     V22    10.0   .     S
V8     V35    10.0   .     S
V8     V1    10.0   1_655     S
V8     Er13    10.0   1_655     S
V9     V39    10.0   1_565     S
V9     V18    10.0   .     S
V9     Er14    10.0   1_565     S
V9     V17    10.0   1_565     S
V10     V34    10.0   1_545     S
V10     V2    10.0   1_545     S
V10     Er13    10.0   1_545     S
V11     V33    10.0   .     S
V11     V16    10.0   1_455     S
V11     Er14    10.0   1_455     S
V11     V18    10.0   .     S
V12     V36    10.0   1_655     S
V12     V1    10.0   1_655     S
V12     V2    10.0   1_545     S
V12     Er13    10.0   1_645     S
Er13     V8    10.0   1_545     S
Er13     V10    10.0   1_655     S
Er13     V12    10.0   .     S
Er13     Er14    10.0   1_556     S
Er14     V9    10.0   1_455     S
Er14     V11    10.0   1_565     S
Er14     Er13    10.0   1_554     S
Er14     V15    10.0   .     S
V15     V32    10.0   1_455     S
V15     V17    10.0   1_565     S
V15     Er14    10.0   1_465     S
V15     V16    10.0   1_455     S
V16     V31    10.0   .     S
V16     V11    10.0   1_655     S
V16     V15    10.0   1_655     S
V16     Er21    10.0   .     S
V17     V47    10.0   .     S
V17     V15    10.0   1_545     S
V17     V9    10.0   1_545     S
V17     Er21    10.0   .     S
V18     V28    10.0   .     S
V18     Er21    10.0   .     S
V19     V7    10.0   1_545     S
V19     V23    10.0   1_655     S
V19     Er20    10.0   .     S
V19     V25    10.0   .     S
Er20     Er21    10.0   .     S
Er20     V22    10.0   .     S
Er20     V24    10.0   .     S
V22     V27    10.0   .     S
V22     V4    10.0   1_655     S
V23     V19    10.0   1_455     S
V23     V24    10.0   .     S
V23     V42    10.0   .     S
V24     V26    10.0   .     S
V24     V4    10.0   1_545     S
V25     V34    10.0   1_545     S
V25     Er29    10.0   .     S
V25     V35    10.0   1_545     S
V26     V35    10.0   .     S
V26     Er29    10.0   .     S
V26     V36    10.0   .     S
V27     V36    10.0   1_655     S
V27     Er29    10.0   .     S
V27     V34    10.0   1_655     S
V28     V46    10.0   1_654     S
V28     Er30    10.0   1_554     S
V28     V43    10.0   1_554     S
Er29     Er30    10.0   .     S
Er30     V28    10.0   1_556     S
Er30     V31    10.0   1_556     S
Er30     V47    10.0   1_556     S
V31     V43    10.0   1_544     S
V31     Er30    10.0   1_554     S
V31     V48    10.0   1_654     S
V32     V15    10.0   1_655     S
V32     V41    10.0   .     S
V32     Er38    10.0   1_655     S
V32     V42    10.0   1_655     S
V33     V40    10.0   1_545     S
V33     Er38    10.0   1_545     S
V33     V41    10.0   .     S
V34     V10    10.0   1_565     S
V34     V25    10.0   1_565     S
V34     V27    10.0   1_455     S
V34     Er37    10.0   1_465     S
V35     V25    10.0   1_565     S
V35     Er37    10.0   1_565     S
V36     V12    10.0   1_455     S
V36     V27    10.0   1_455     S
V36     Er37    10.0   1_455     S
Er37     V34    10.0   .     S
Er37     V35    10.0   1_455     S
Er37     V36    10.0   1_565     S
Er37     Er38    10.0   .     S
Er38     V32    10.0   1_545     S
Er38     V33    10.0   1_655     S
Er38     V39    10.0   .     S
V39     V9    10.0   1_545     S
V39     V42    10.0   1_655     S
V39     Er38    10.0   1_645     S
V39     V40    10.0   1_545     S
V40     V33    10.0   1_565     S
V40     V39    10.0   1_565     S
V40     Er45    10.0   .     S
V41     Er45    10.0   .     S
V42     V39    10.0   1_455     S
V42     V32    10.0   1_455     S
V42     Er45    10.0   .     S
V43     V31    10.0   1_566     S
V43     V28    10.0   1_556     S
V43     Er44    10.0   1_556     S
Er44     V43    10.0   1_554     S
Er44     Er45    10.0   .     S
Er44     V46    10.0   1_554     S
Er44     V48    10.0   1_554     S
V46     V28    10.0   1_456     S
V46     V47    10.0   1_566     S
V46     Er44    10.0   1_556     S
V47     V46    10.0   1_544     S
V47     V48    10.0   1_554     S
V47     Er30    10.0   1_554     S
V48     V47    10.0   1_556     S
V48     V31    10.0   1_456     S
V48     Er44    10.0   1_556     S
