data_nom
_audit_creation_date              2020-02-02
_audit_creation_method            'Pymatgen'
_symmetry_space_group_name_H-M    'P1'
_symmetry_Int_Tables_number       1
loop_
_symmetry_equiv_pos_as_xyz
  x,y,z
_cell_length_a                    29.2126
_cell_length_b                    29.2126
_cell_length_c                    31.4159
_cell_angle_alpha                 90.0
_cell_angle_beta                 90.0
_cell_angle_gamma                 120.0
loop_
_atom_site_label
_atom_site_type_symbol
_atom_site_fract_x
_atom_site_fract_y
_atom_site_fract_z
V1     V     0.5423   0.0   1.0
Er2     Er     0.6199   0.2397   0.75
V3     V     0.5423   0.5423   0.1667
Er4     Er     0.3801   0.6199   0.9167
V5     V     0.0   0.5423   0.3333
Er6     Er     0.7603   0.3801   0.0833
V7     V     0.4577   0.0   0.5
Er8     Er     0.3801   0.7603   0.25
V9     V     0.0   0.4577   0.8333
Er10     Er     0.2397   0.6199   0.5833
V11     V     0.4577   0.4577   0.6667
Er12     Er     0.6199   0.3801   0.4167
loop_
_geom_bond_atom_site_label_1
_geom_bond_atom_site_label_2
_geom_bond_distance
_geom_bond_site_symmetry_2
_ccdc_geom_bond_type
V1     Er2    10.0   .     S
V1     Er8    10.0   1_546     S
V1     Er6    10.0   1_556     S
V1     Er4    10.0   1_545     S
Er2     V1    10.0   1_556     S
Er2     V7    10.0   .     S
Er2     V9    10.0   1_655     S
Er2     V11    10.0   .     S
V3     Er4    10.0   1_554     S
V3     Er6    10.0   .     S
V3     Er8    10.0   .     S
V3     Er12    10.0   .     S
Er4     V1    10.0   1_566     S
Er4     V3    10.0   1_556     S
Er4     V9    10.0   .     S
Er4     V11    10.0   .     S
V5     Er6    10.0   1_455     S
V5     Er8    10.0   .     S
V5     Er12    10.0   1_455     S
V5     Er10    10.0   .     S
Er6     V1    10.0   .     S
Er6     V5    10.0   1_655     S
Er6     V9    10.0   1_654     S
V7     Er8    10.0   1_545     S
V7     Er12    10.0   .     S
V7     Er10    10.0   1_545     S
Er8     V1    10.0   1_565     S
Er8     V7    10.0   1_565     S
V9     Er10    10.0   .     S
V9     Er2    10.0   1_455     S
V9     Er6    10.0   1_456     S
Er10     V7    10.0   1_565     S
Er10     V11    10.0   .     S
V11     Er12    10.0   .     S
Er12     V5    10.0   1_655     S
