data_smd
_audit_creation_date              2020-02-02
_audit_creation_method            'Pymatgen'
_symmetry_space_group_name_H-M    'P1'
_symmetry_Int_Tables_number       1
loop_
_symmetry_equiv_pos_as_xyz
  x,y,z
_cell_length_a                    46.33
_cell_length_b                    46.33
_cell_length_c                    20.0
_cell_angle_alpha                 90.0
_cell_angle_beta                 90.0
_cell_angle_gamma                 120.0
loop_
_atom_site_label
_atom_site_type_symbol
_atom_site_fract_x
_atom_site_fract_y
_atom_site_fract_z
V1     V     0.6667   0.5492   0.4167
V2     V     0.6667   0.5492   0.9167
V3     V     0.8825   0.5492   0.4167
V4     V     0.8825   0.5492   0.9167
V5     V     0.8825   0.3333   0.4167
V6     V     0.8825   0.3333   0.9167
V7     V     0.6667   0.1175   0.4167
V8     V     0.6667   0.1175   0.9167
V9     V     0.4508   0.1175   0.4167
V10     V     0.4508   0.1175   0.9167
V11     V     0.4508   0.3333   0.4167
V12     V     0.4508   0.3333   0.9167
V13     V     0.3333   0.8825   0.0833
V14     V     0.3333   0.8825   0.5833
V15     V     0.5492   0.8825   0.0833
V16     V     0.5492   0.8825   0.5833
V17     V     0.1175   0.4508   0.0833
V18     V     0.1175   0.4508   0.5833
V19     V     0.3333   0.4508   0.0833
V20     V     0.3333   0.4508   0.5833
V21     V     0.5492   0.6667   0.0833
V22     V     0.5492   0.6667   0.5833
V23     V     0.1175   0.6667   0.0833
V24     V     0.1175   0.6667   0.5833
V25     V     0.7842   0.0   0.25
V26     V     0.7842   0.0   0.75
V27     V     0.7842   0.7842   0.25
V28     V     0.7842   0.7842   0.75
V29     V     1.0   0.7842   0.25
V30     V     1.0   0.7842   0.75
V31     V     0.2158   0.0   0.25
V32     V     0.2158   0.0   0.75
V33     V     0.2158   0.2158   0.25
V34     V     0.2158   0.2158   0.75
V35     V     1.0   0.2158   0.25
V36     V     1.0   0.2158   0.75
loop_
_geom_bond_atom_site_label_1
_geom_bond_atom_site_label_2
_geom_bond_distance
_geom_bond_site_symmetry_2
_ccdc_geom_bond_type
V1     V22    10.0   .     S
V1     V3    10.0   .     S
V1     V11    10.0   .     S
V1     V2    10.0   1_554     S
V1     V2    10.0   .     S
V1     V27    10.0   .     S
V2     V21    10.0   1_556     S
V2     V4    10.0   .     S
V2     V12    10.0   .     S
V2     V1    10.0   1_556     S
V2     V28    10.0   .     S
V3     V24    10.0   1_655     S
V3     V5    10.0   .     S
V3     V4    10.0   1_554     S
V3     V4    10.0   .     S
V3     V29    10.0   1_655     S
V4     V23    10.0   1_656     S
V4     V6    10.0   .     S
V4     V3    10.0   1_556     S
V4     V30    10.0   1_655     S
V5     V18    10.0   1_655     S
V5     V35    10.0   1_655     S
V5     V7    10.0   .     S
V5     V6    10.0   1_554     S
V5     V6    10.0   .     S
V6     V17    10.0   1_656     S
V6     V36    10.0   1_655     S
V6     V8    10.0   .     S
V6     V5    10.0   1_556     S
V7     V9    10.0   .     S
V7     V8    10.0   1_554     S
V7     V8    10.0   .     S
V7     V16    10.0   1_545     S
V7     V25    10.0   .     S
V8     V10    10.0   .     S
V8     V7    10.0   1_556     S
V8     V15    10.0   1_546     S
V8     V26    10.0   .     S
V9     V31    10.0   .     S
V9     V11    10.0   .     S
V9     V10    10.0   1_554     S
V9     V10    10.0   .     S
V9     V14    10.0   1_545     S
V10     V32    10.0   .     S
V10     V12    10.0   .     S
V10     V9    10.0   1_556     S
V10     V13    10.0   1_546     S
V11     V33    10.0   .     S
V11     V20    10.0   .     S
V11     V12    10.0   1_554     S
V11     V12    10.0   .     S
V12     V34    10.0   .     S
V12     V19    10.0   1_556     S
V12     V11    10.0   1_556     S
V13     V10    10.0   1_564     S
V13     V31    10.0   1_565     S
V13     V15    10.0   .     S
V13     V23    10.0   .     S
V13     V14    10.0   .     S
V13     V14    10.0   1_554     S
V14     V9    10.0   1_565     S
V14     V32    10.0   1_565     S
V14     V16    10.0   .     S
V14     V24    10.0   .     S
V14     V13    10.0   1_556     S
V15     V25    10.0   1_565     S
V15     V8    10.0   1_564     S
V15     V21    10.0   .     S
V15     V16    10.0   .     S
V15     V16    10.0   1_554     S
V16     V26    10.0   1_565     S
V16     V7    10.0   1_565     S
V16     V22    10.0   .     S
V16     V15    10.0   1_556     S
V17     V6    10.0   1_454     S
V17     V35    10.0   .     S
V17     V23    10.0   .     S
V17     V19    10.0   .     S
V17     V18    10.0   .     S
V17     V18    10.0   1_554     S
V18     V5    10.0   1_455     S
V18     V36    10.0   .     S
V18     V24    10.0   .     S
V18     V20    10.0   .     S
V18     V17    10.0   1_556     S
V19     V12    10.0   1_554     S
V19     V33    10.0   .     S
V19     V21    10.0   .     S
V19     V20    10.0   .     S
V19     V20    10.0   1_554     S
V20     V34    10.0   .     S
V20     V22    10.0   .     S
V20     V19    10.0   1_556     S
V21     V2    10.0   1_554     S
V21     V22    10.0   .     S
V21     V22    10.0   1_554     S
V21     V27    10.0   .     S
V22     V21    10.0   1_556     S
V22     V28    10.0   .     S
V23     V4    10.0   1_454     S
V23     V29    10.0   .     S
V23     V24    10.0   .     S
V23     V24    10.0   1_554     S
V24     V3    10.0   1_455     S
V24     V30    10.0   .     S
V24     V23    10.0   1_556     S
V25     V15    10.0   1_545     S
V25     V27    10.0   1_545     S
V25     V35    10.0   1_655     S
V25     V26    10.0   1_554     S
V25     V26    10.0   .     S
V26     V16    10.0   1_545     S
V26     V28    10.0   1_545     S
V26     V36    10.0   1_655     S
V26     V25    10.0   1_556     S
V27     V25    10.0   1_565     S
V27     V29    10.0   1_655     S
V27     V28    10.0   1_554     S
V27     V28    10.0   .     S
V28     V26    10.0   1_565     S
V28     V30    10.0   1_655     S
V28     V27    10.0   1_556     S
V29     V23    10.0   1_655     S
V29     V3    10.0   .     S
V29     V27    10.0   .     S
V29     V31    10.0   1_665     S
V29     V30    10.0   1_654     S
V29     V30    10.0   1_655     S
V30     V24    10.0   1_655     S
V30     V4    10.0   .     S
V30     V28    10.0   .     S
V30     V32    10.0   1_665     S
V30     V29    10.0   1_656     S
V30     V29    10.0   1_655     S
V31     V13    10.0   1_545     S
V31     V29    10.0   1_545     S
V31     V33    10.0   .     S
V31     V32    10.0   1_554     S
V31     V32    10.0   .     S
V32     V14    10.0   1_545     S
V32     V30    10.0   1_545     S
V32     V34    10.0   .     S
V32     V31    10.0   1_556     S
V33     V35    10.0   .     S
V33     V34    10.0   1_554     S
V33     V34    10.0   .     S
V34     V36    10.0   .     S
V34     V33    10.0   1_556     S
V35     V17    10.0   1_655     S
V35     V5    10.0   .     S
V35     V25    10.0   .     S
V35     V33    10.0   1_655     S
V35     V36    10.0   1_654     S
V35     V36    10.0   1_655     S
V36     V18    10.0   1_655     S
V36     V6    10.0   .     S
V36     V26    10.0   .     S
V36     V34    10.0   1_655     S
V36     V35    10.0   1_656     S
V36     V35    10.0   1_655     S
