data_smf
_audit_creation_date              2020-02-02
_audit_creation_method            'Pymatgen'
_symmetry_space_group_name_H-M    'P1'
_symmetry_Int_Tables_number       1
loop_
_symmetry_equiv_pos_as_xyz
  x,y,z
_cell_length_a                    58.641
_cell_length_b                    58.641
_cell_length_c                    19.9998
_cell_angle_alpha                 90.0
_cell_angle_beta                 90.0
_cell_angle_gamma                 120.0
loop_
_atom_site_label
_atom_site_type_symbol
_atom_site_fract_x
_atom_site_fract_y
_atom_site_fract_z
V1     V     0.9072   0.6667   0.4583
V2     V     0.9072   0.6667   0.9583
V3     V     0.7595   0.6667   0.2083
V4     V     0.7595   0.6667   0.7083
V5     V     0.6667   0.9072   0.2917
V6     V     0.6667   0.9072   0.7917
V7     V     0.6667   0.7595   0.0417
V8     V     0.6667   0.7595   0.5417
V9     V     0.5738   0.5738   0.375
V10     V     0.5738   0.5738   0.875
V11     V     0.4262   0.4262   0.125
V12     V     0.4262   0.4262   0.625
V13     V     0.2405   0.3333   0.2917
V14     V     0.2405   0.3333   0.7917
V15     V     0.0928   0.3333   0.0417
V16     V     0.0928   0.3333   0.5417
V17     V     0.3333   0.2405   0.4583
V18     V     0.3333   0.2405   0.9583
V19     V     0.3333   0.0928   0.2083
V20     V     0.3333   0.0928   0.7083
V21     V     0.2405   0.9072   0.0417
V22     V     0.2405   0.9072   0.5417
V23     V     0.0928   0.7595   0.2917
V24     V     0.0928   0.7595   0.7917
V25     V     0.5738   0.0   0.125
V26     V     0.5738   0.0   0.625
V27     V     0.4262   0.0   0.375
V28     V     0.4262   0.0   0.875
V29     V     0.9072   0.2405   0.2083
V30     V     0.9072   0.2405   0.7083
V31     V     0.7595   0.0928   0.4583
V32     V     0.7595   0.0928   0.9583
V33     V     1.0   0.4262   0.375
V34     V     1.0   0.4262   0.875
V35     V     1.0   0.5738   0.125
V36     V     1.0   0.5738   0.625
loop_
_geom_bond_atom_site_label_1
_geom_bond_atom_site_label_2
_geom_bond_distance
_geom_bond_site_symmetry_2
_ccdc_geom_bond_type
V1     V23    10.0   1_655     S
V1     V36    10.0   1_655     S
V1     V3    10.0   .     S
V1     V2    10.0   1_554     S
V1     V2    10.0   .     S
V1     V4    10.0   .     S
V2     V24    10.0   1_655     S
V2     V35    10.0   1_656     S
V2     V4    10.0   .     S
V2     V1    10.0   1_556     S
V2     V3    10.0   1_556     S
V3     V9    10.0   .     S
V3     V2    10.0   1_554     S
V3     V4    10.0   .     S
V3     V4    10.0   1_554     S
V3     V7    10.0   .     S
V4     V10    10.0   .     S
V4     V3    10.0   1_556     S
V4     V8    10.0   .     S
V5     V31    10.0   1_565     S
V5     V25    10.0   1_565     S
V5     V6    10.0   1_554     S
V5     V6    10.0   .     S
V5     V7    10.0   .     S
V5     V8    10.0   .     S
V6     V32    10.0   1_565     S
V6     V26    10.0   1_565     S
V6     V5    10.0   1_556     S
V6     V8    10.0   .     S
V6     V7    10.0   1_556     S
V7     V10    10.0   1_554     S
V7     V6    10.0   1_554     S
V7     V8    10.0   .     S
V7     V8    10.0   1_554     S
V8     V9    10.0   .     S
V8     V7    10.0   1_556     S
V9     V12    10.0   .     S
V9     V10    10.0   1_554     S
V9     V10    10.0   .     S
V9     V11    10.0   .     S
V10     V7    10.0   1_556     S
V10     V11    10.0   1_556     S
V10     V9    10.0   1_556     S
V10     V12    10.0   .     S
V11     V10    10.0   1_554     S
V11     V12    10.0   .     S
V11     V12    10.0   1_554     S
V11     V13    10.0   .     S
V11     V18    10.0   1_554     S
V12     V11    10.0   1_556     S
V12     V14    10.0   .     S
V12     V17    10.0   .     S
V13     V14    10.0   1_554     S
V13     V14    10.0   .     S
V13     V15    10.0   .     S
V13     V16    10.0   .     S
V13     V17    10.0   .     S
V14     V13    10.0   1_556     S
V14     V16    10.0   .     S
V14     V15    10.0   1_556     S
V14     V18    10.0   .     S
V15     V29    10.0   1_455     S
V15     V14    10.0   1_554     S
V15     V16    10.0   .     S
V15     V16    10.0   1_554     S
V15     V34    10.0   1_554     S
V16     V30    10.0   1_455     S
V16     V15    10.0   1_556     S
V16     V33    10.0   .     S
V17     V18    10.0   1_554     S
V17     V18    10.0   .     S
V17     V19    10.0   .     S
V17     V20    10.0   .     S
V18     V11    10.0   1_556     S
V18     V17    10.0   1_556     S
V18     V20    10.0   .     S
V18     V19    10.0   1_556     S
V19     V21    10.0   1_545     S
V19     V18    10.0   1_554     S
V19     V20    10.0   .     S
V19     V20    10.0   1_554     S
V19     V27    10.0   .     S
V20     V22    10.0   1_545     S
V20     V19    10.0   1_556     S
V20     V28    10.0   .     S
V21     V19    10.0   1_565     S
V21     V22    10.0   .     S
V21     V22    10.0   1_554     S
V21     V24    10.0   1_554     S
V21     V23    10.0   .     S
V21     V28    10.0   1_564     S
V22     V20    10.0   1_565     S
V22     V21    10.0   1_556     S
V22     V23    10.0   .     S
V22     V24    10.0   .     S
V22     V27    10.0   1_565     S
V23     V1    10.0   1_455     S
V23     V24    10.0   1_554     S
V23     V24    10.0   .     S
V23     V35    10.0   .     S
V24     V2    10.0   1_455     S
V24     V21    10.0   1_556     S
V24     V23    10.0   1_556     S
V24     V36    10.0   .     S
V25     V5    10.0   1_545     S
V25     V32    10.0   1_554     S
V25     V28    10.0   1_554     S
V25     V26    10.0   .     S
V25     V26    10.0   1_554     S
V25     V27    10.0   .     S
V26     V6    10.0   1_545     S
V26     V31    10.0   .     S
V26     V27    10.0   .     S
V26     V25    10.0   1_556     S
V26     V28    10.0   .     S
V27     V22    10.0   1_545     S
V27     V28    10.0   1_554     S
V27     V28    10.0   .     S
V28     V21    10.0   1_546     S
V28     V25    10.0   1_556     S
V28     V27    10.0   1_556     S
V29     V15    10.0   1_655     S
V29     V31    10.0   .     S
V29     V32    10.0   1_554     S
V29     V30    10.0   .     S
V29     V30    10.0   1_554     S
V29     V33    10.0   1_655     S
V30     V16    10.0   1_655     S
V30     V32    10.0   .     S
V30     V31    10.0   .     S
V30     V29    10.0   1_556     S
V30     V34    10.0   1_655     S
V31     V5    10.0   1_545     S
V31     V32    10.0   1_554     S
V31     V32    10.0   .     S
V32     V6    10.0   1_545     S
V32     V25    10.0   1_556     S
V32     V29    10.0   1_556     S
V32     V31    10.0   1_556     S
V33     V16    10.0   1_655     S
V33     V29    10.0   .     S
V33     V36    10.0   1_655     S
V33     V34    10.0   1_654     S
V33     V34    10.0   1_655     S
V33     V35    10.0   1_655     S
V34     V15    10.0   1_656     S
V34     V30    10.0   .     S
V34     V35    10.0   1_656     S
V34     V33    10.0   1_656     S
V34     V33    10.0   1_655     S
V34     V36    10.0   1_655     S
V35     V2    10.0   1_554     S
V35     V23    10.0   1_655     S
V35     V34    10.0   1_654     S
V35     V33    10.0   1_655     S
V35     V36    10.0   1_655     S
V35     V36    10.0   1_654     S
V36     V1    10.0   .     S
V36     V24    10.0   1_655     S
V36     V33    10.0   1_655     S
V36     V34    10.0   1_655     S
V36     V35    10.0   1_655     S
V36     V35    10.0   1_656     S
