data_smj
_audit_creation_date              2020-02-02
_audit_creation_method            'Pymatgen'
_symmetry_space_group_name_H-M    'P1'
_symmetry_Int_Tables_number       1
loop_
_symmetry_equiv_pos_as_xyz
  x,y,z
_cell_length_a                    28.3806
_cell_length_b                    28.3806
_cell_length_c                    20.0
_cell_angle_alpha                 90.0
_cell_angle_beta                 90.0
_cell_angle_gamma                 120.0
loop_
_atom_site_label
_atom_site_type_symbol
_atom_site_fract_x
_atom_site_fract_y
_atom_site_fract_z
V1     V     0.3474   0.3474   0.3333
V2     V     0.3474   0.3474   0.8333
V3     V     0.6526   0.6526   0.0833
V4     V     0.6526   0.6526   0.5833
V5     V     0.6526   0.0   0.0
V6     V     0.6526   0.0   0.5
V7     V     0.3474   0.0   0.25
V8     V     0.3474   0.0   0.75
V9     V     1.0   0.3474   0.4167
V10     V     1.0   0.3474   0.9167
V11     V     0.0   0.6526   0.1667
V12     V     0.0   0.6526   0.6667
loop_
_geom_bond_atom_site_label_1
_geom_bond_atom_site_label_2
_geom_bond_distance
_geom_bond_site_symmetry_2
_ccdc_geom_bond_type
V1     V3    10.0   .     S
V1     V2    10.0   1_554     S
V1     V2    10.0   .     S
V1     V4    10.0   .     S
V1     V7    10.0   .     S
V1     V9    10.0   .     S
V2     V4    10.0   .     S
V2     V1    10.0   1_556     S
V2     V3    10.0   1_556     S
V2     V8    10.0   .     S
V2     V10    10.0   .     S
V3     V11    10.0   1_655     S
V3     V5    10.0   1_565     S
V3     V4    10.0   .     S
V3     V4    10.0   1_554     S
V3     V2    10.0   1_554     S
V4     V12    10.0   1_655     S
V4     V6    10.0   1_565     S
V4     V3    10.0   1_556     S
V5     V10    10.0   1_654     S
V5     V3    10.0   1_545     S
V5     V7    10.0   .     S
V5     V6    10.0   .     S
V5     V6    10.0   1_554     S
V5     V8    10.0   1_554     S
V6     V9    10.0   1_655     S
V6     V4    10.0   1_545     S
V6     V8    10.0   .     S
V6     V5    10.0   1_556     S
V6     V7    10.0   .     S
V7     V11    10.0   1_545     S
V7     V8    10.0   1_554     S
V7     V8    10.0   .     S
V8     V12    10.0   1_545     S
V8     V7    10.0   1_556     S
V8     V5    10.0   1_556     S
V9     V6    10.0   .     S
V9     V1    10.0   1_655     S
V9     V12    10.0   1_655     S
V9     V11    10.0   1_655     S
V9     V10    10.0   1_654     S
V9     V10    10.0   1_655     S
V10     V5    10.0   1_556     S
V10     V2    10.0   1_655     S
V10     V11    10.0   1_656     S
V10     V12    10.0   1_655     S
V10     V9    10.0   1_656     S
V10     V9    10.0   1_655     S
V11     V3    10.0   1_455     S
V11     V7    10.0   1_565     S
V11     V12    10.0   .     S
V11     V12    10.0   1_554     S
V11     V10    10.0   1_554     S
V11     V9    10.0   .     S
V12     V4    10.0   1_455     S
V12     V8    10.0   1_565     S
V12     V11    10.0   1_556     S
V12     V9    10.0   .     S
V12     V10    10.0   .     S
