data_sto
_audit_creation_date              2020-02-02
_audit_creation_method            'Pymatgen'
_symmetry_space_group_name_H-M    'P1'
_symmetry_Int_Tables_number       1
loop_
_symmetry_equiv_pos_as_xyz
  x,y,z
_cell_length_a                    20.0
_cell_length_b                    20.0
_cell_length_c                    85.9807
_cell_angle_alpha                 90.0
_cell_angle_beta                 90.0
_cell_angle_gamma                 120.0
loop_
_atom_site_label
_atom_site_type_symbol
_atom_site_fract_x
_atom_site_fract_y
_atom_site_fract_z
Er1     Er     0.25   0.0   0.5
Er2     Er     0.25   0.5   0.5
Er3     Er     0.75   0.0   0.5
Er4     Er     0.75   0.5   0.5
V5     V     0.25   0.25   0.283
V6     V     0.25   0.75   0.283
V7     V     0.75   0.25   0.283
V8     V     0.75   0.75   0.283
V9     V     0.25   0.0   0.3837
V10     V     0.25   0.5   0.3837
V11     V     0.75   0.0   0.3837
V12     V     0.75   0.5   0.3837
V13     V     0.0   0.25   0.9496
V14     V     1.0   0.75   0.9496
V15     V     0.5   0.25   0.9496
V16     V     0.5   0.75   0.9496
V17     V     0.25   0.25   0.0504
V18     V     0.25   0.75   0.0504
V19     V     0.75   0.25   0.0504
V20     V     0.75   0.75   0.0504
Er21     Er     0.25   0.25   0.1667
Er22     Er     0.25   0.75   0.1667
Er23     Er     0.75   0.25   0.1667
Er24     Er     0.75   0.75   0.1667
V25     V     0.25   0.0   0.6163
V26     V     0.25   0.5   0.6163
V27     V     0.75   0.0   0.6163
V28     V     0.75   0.5   0.6163
V29     V     0.0   0.25   0.717
V30     V     1.0   0.75   0.717
V31     V     0.5   0.25   0.717
V32     V     0.5   0.75   0.717
Er33     Er     0.0   0.25   0.8333
Er34     Er     1.0   0.75   0.8333
Er35     Er     0.5   0.25   0.8333
Er36     Er     0.5   0.75   0.8333
loop_
_geom_bond_atom_site_label_1
_geom_bond_atom_site_label_2
_geom_bond_distance
_geom_bond_site_symmetry_2
_ccdc_geom_bond_type
Er1     V25    10.0   .     S
Er1     V9    10.0   .     S
Er1     Er3    10.0   1_455     S
Er1     Er3    10.0   .     S
Er2     V26    10.0   .     S
Er2     V10    10.0   .     S
Er2     Er4    10.0   1_455     S
Er2     Er4    10.0   .     S
Er3     V27    10.0   .     S
Er3     V11    10.0   .     S
Er3     Er1    10.0   1_655     S
Er4     V28    10.0   .     S
Er4     V12    10.0   .     S
Er4     Er2    10.0   1_655     S
V5     V10    9.999   .     S
V5     V9    9.999   .     S
V5     Er21    10.0   .     S
V6     V9    9.999   1_565     S
V6     V10    9.999   .     S
V6     Er22    10.0   .     S
V7     V12    9.999   .     S
V7     V11    9.999   .     S
V7     Er23    10.0   .     S
V8     V11    9.999   1_565     S
V8     V12    9.999   .     S
V8     Er24    10.0   .     S
V9     V6    9.999   1_545     S
V11     V8    9.999   1_545     S
V13     V17    9.999   1_556     S
V13     V19    9.999   1_456     S
V13     Er33    10.0   .     S
V14     V18    9.999   1_656     S
V14     V20    9.999   1_556     S
V14     Er34    10.0   1_655     S
V15     V19    9.999   1_556     S
V15     V17    9.999   1_556     S
V15     Er35    10.0   .     S
V16     V20    9.999   1_556     S
V16     V18    9.999   1_556     S
V16     Er36    10.0   .     S
V17     V13    9.999   1_554     S
V17     V15    9.999   1_554     S
V17     Er21    10.0   .     S
V18     V14    9.999   1_554     S
V18     V16    9.999   1_554     S
V18     Er22    10.0   .     S
V19     V15    9.999   1_554     S
V19     V13    9.999   1_654     S
V19     Er23    10.0   .     S
V20     V16    9.999   1_554     S
V20     V14    9.999   1_654     S
V20     Er24    10.0   .     S
Er21     Er24    10.0   1_445     S
Er21     Er24    10.0   .     S
Er22     Er23    10.0   1_455     S
Er22     Er23    10.0   1_565     S
Er23     Er22    10.0   1_655     S
Er23     Er22    10.0   1_545     S
Er24     Er21    10.0   1_665     S
V25     V31    9.999   .     S
V25     V30    9.999   1_545     S
V26     V32    9.999   .     S
V26     V29    9.999   .     S
V27     V29    9.999   1_655     S
V27     V32    9.999   1_545     S
V28     V30    9.999   1_655     S
V28     V31    9.999   .     S
V29     V27    9.999   1_455     S
V29     Er33    10.0   .     S
V30     V28    9.999   .     S
V30     V25    9.999   1_665     S
V30     Er34    10.0   1_655     S
V31     Er35    10.0   .     S
V32     V27    9.999   1_565     S
V32     Er36    10.0   .     S
Er33     Er34    10.0   1_545     S
Er33     Er34    10.0   .     S
Er34     V14    10.0   1_655     S
Er34     V30    10.0   1_655     S
Er34     Er33    10.0   1_665     S
Er34     Er33    10.0   1_655     S
Er35     Er36    10.0   1_545     S
Er35     Er36    10.0   .     S
Er36     Er35    10.0   1_565     S
