data_tccx
_audit_creation_date              2020-02-02
_audit_creation_method            'Pymatgen'
_symmetry_space_group_name_H-M    'P1'
_symmetry_Int_Tables_number       1
loop_
_symmetry_equiv_pos_as_xyz
  x,y,z
_cell_length_a                    19.6144
_cell_length_b                    19.6144
_cell_length_c                    22.4955
_cell_angle_alpha                 90.0
_cell_angle_beta                 90.0
_cell_angle_gamma                 120.0
loop_
_atom_site_label
_atom_site_type_symbol
_atom_site_fract_x
_atom_site_fract_y
_atom_site_fract_z
V1     V     0.0   0.25   0.1667
V2     V     1.0   0.75   0.1667
V3     V     0.5   0.25   0.1667
V4     V     0.5   0.75   0.1667
V5     V     0.25   0.25   0.8333
V6     V     0.25   0.75   0.8333
V7     V     0.75   0.25   0.8333
V8     V     0.75   0.75   0.8333
V9     V     0.25   0.0   0.5
V10     V     0.25   0.5   0.5
V11     V     0.75   0.0   0.5
V12     V     0.75   0.5   0.5
loop_
_geom_bond_atom_site_label_1
_geom_bond_atom_site_label_2
_geom_bond_distance
_geom_bond_site_symmetry_2
_ccdc_geom_bond_type
V1     V4    9.807   .     S
V1     V4    9.807   1_445     S
V1     V3    9.807   .     S
V1     V3    9.807   1_455     S
V1     V2    9.807   1_545     S
V1     V2    9.807   .     S
V1     V11    8.96   1_455     S
V1     V10    8.96   .     S
V1     V5    8.96   1_554     S
V1     V7    8.96   1_454     S
V1     V6    11.33   1_554     S
V1     V8    11.33   1_444     S
V1     V12    11.33   1_455     S
V1     V9    11.33   .     S
V2     V3    9.807   1_665     S
V2     V3    9.807   .     S
V2     V4    9.807   1_655     S
V2     V4    9.807   .     S
V2     V1    9.807   1_665     S
V2     V1    9.807   1_655     S
V2     V12    8.96   .     S
V2     V9    8.96   1_665     S
V2     V6    8.96   1_654     S
V2     V8    8.96   1_554     S
V2     V5    11.33   1_664     S
V2     V7    11.33   1_554     S
V2     V11    11.33   1_565     S
V2     V10    11.33   1_655     S
V3     V2    9.807   1_545     S
V3     V2    9.807   1_655     S
V3     V1    9.807   1_655     S
V3     V4    9.807   1_545     S
V3     V4    9.807   .     S
V3     V9    8.96   .     S
V3     V12    8.96   .     S
V3     V7    8.96   1_554     S
V3     V5    8.96   1_554     S
V3     V8    11.33   1_554     S
V3     V6    11.33   1_544     S
V3     V10    11.33   .     S
V3     V11    11.33   .     S
V4     V1    9.807   1_665     S
V4     V2    9.807   1_655     S
V4     V3    9.807   1_565     S
V4     V10    8.96   .     S
V4     V11    8.96   1_565     S
V4     V8    8.96   1_554     S
V4     V6    8.96   1_554     S
V4     V7    11.33   1_564     S
V4     V5    11.33   1_554     S
V4     V9    11.33   1_565     S
V4     V12    11.33   .     S
V5     V7    9.807   1_455     S
V5     V7    9.807   .     S
V5     V6    9.807   1_545     S
V5     V6    9.807   .     S
V5     V8    9.807   1_445     S
V5     V8    9.807   .     S
V5     V1    8.96   1_556     S
V5     V3    8.96   1_556     S
V5     V10    8.96   .     S
V5     V9    8.96   .     S
V5     V11    11.33   1_455     S
V5     V12    11.33   .     S
V5     V2    11.33   1_546     S
V5     V4    11.33   1_556     S
V6     V8    9.807   1_455     S
V6     V8    9.807   .     S
V6     V5    9.807   1_565     S
V6     V7    9.807   1_455     S
V6     V7    9.807   1_565     S
V6     V2    8.96   1_556     S
V6     V4    8.96   1_556     S
V6     V9    8.96   1_565     S
V6     V10    8.96   .     S
V6     V12    11.33   1_455     S
V6     V11    11.33   1_565     S
V6     V1    11.33   1_556     S
V6     V3    11.33   1_566     S
V7     V5    9.807   1_655     S
V7     V8    9.807   1_545     S
V7     V8    9.807   .     S
V7     V6    9.807   1_655     S
V7     V6    9.807   1_545     S
V7     V3    8.96   1_556     S
V7     V1    8.96   1_656     S
V7     V12    8.96   .     S
V7     V11    8.96   .     S
V7     V9    11.33   .     S
V7     V10    11.33   1_655     S
V7     V4    11.33   1_546     S
V7     V2    11.33   1_656     S
V8     V6    9.807   1_655     S
V8     V7    9.807   1_565     S
V8     V5    9.807   1_665     S
V8     V4    8.96   1_556     S
V8     V2    8.96   1_656     S
V8     V11    8.96   1_565     S
V8     V12    8.96   .     S
V8     V10    11.33   .     S
V8     V9    11.33   1_665     S
V8     V3    11.33   1_556     S
V8     V1    11.33   1_666     S
V9     V12    9.807   1_445     S
V9     V12    9.807   .     S
V9     V11    9.807   1_455     S
V9     V11    9.807   .     S
V9     V10    9.807   .     S
V9     V10    9.807   1_545     S
V9     V2    8.96   1_545     S
V9     V6    8.96   1_545     S
V9     V8    11.33   1_445     S
V9     V4    11.33   1_545     S
V10     V11    9.807   1_455     S
V10     V11    9.807   1_565     S
V10     V12    9.807   1_455     S
V10     V12    9.807   .     S
V10     V9    9.807   1_565     S
V10     V7    11.33   1_455     S
V10     V2    11.33   .     S
V11     V10    9.807   1_655     S
V11     V10    9.807   1_545     S
V11     V9    9.807   1_655     S
V11     V12    9.807   .     S
V11     V12    9.807   1_545     S
V11     V1    8.96   1_655     S
V11     V4    8.96   1_545     S
V11     V8    8.96   1_545     S
V11     V5    11.33   1_655     S
V11     V6    11.33   1_545     S
V11     V2    11.33   1_645     S
V12     V9    9.807   1_665     S
V12     V10    9.807   1_655     S
V12     V11    9.807   1_565     S
V12     V2    8.96   1_655     S
V12     V6    11.33   1_655     S
V12     V1    11.33   1_655     S
