data_tcn
_audit_creation_date              2020-02-02
_audit_creation_method            'Pymatgen'
_symmetry_space_group_name_H-M    'P1'
_symmetry_Int_Tables_number       1
loop_
_symmetry_equiv_pos_as_xyz
  x,y,z
_cell_length_a                    20.0
_cell_length_b                    20.0
_cell_length_c                    51.9616
_cell_angle_alpha                 90.0
_cell_angle_beta                 90.0
_cell_angle_gamma                 120.0
loop_
_atom_site_label
_atom_site_type_symbol
_atom_site_fract_x
_atom_site_fract_y
_atom_site_fract_z
Er1     Er     0.0   0.25   0.3333
Er2     Er     1.0   0.75   0.3333
Er3     Er     0.5   0.25   0.3333
Er4     Er     0.5   0.75   0.3333
V5     V     0.0   0.0   0.8333
V6     V     0.0   0.5   0.8333
V7     V     0.5   0.0   0.8333
V8     V     0.5   0.5   0.8333
Er9     Er     0.25   0.0   0.0
Er10     Er     0.25   0.5   0.0
Er11     Er     0.75   0.0   0.0
Er12     Er     0.75   0.5   0.0
V13     V     0.0   0.0   0.1667
V14     V     0.0   0.5   0.1667
V15     V     0.5   0.0   0.1667
V16     V     0.5   0.5   0.1667
V17     V     0.0   0.0   0.5
V18     V     0.0   0.5   0.5
V19     V     0.5   0.0   0.5
V20     V     0.5   0.5   0.5
Er21     Er     0.25   0.25   0.6667
Er22     Er     0.25   0.75   0.6667
Er23     Er     0.75   0.25   0.6667
Er24     Er     0.75   0.75   0.6667
loop_
_geom_bond_atom_site_label_1
_geom_bond_atom_site_label_2
_geom_bond_distance
_geom_bond_site_symmetry_2
_ccdc_geom_bond_type
Er1     V17    10.0   .     S
Er1     V18    10.0   .     S
Er1     V14    10.0   .     S
Er1     Er2    10.0   1_545     S
Er1     Er2    10.0   .     S
Er1     V13    10.0   .     S
Er1     Er3    10.0   .     S
Er1     Er3    10.0   1_455     S
Er1     Er4    10.0   .     S
Er1     Er4    10.0   1_445     S
Er2     V18    10.0   1_655     S
Er2     V17    10.0   1_665     S
Er2     V13    10.0   1_665     S
Er2     Er1    10.0   1_665     S
Er2     Er1    10.0   1_655     S
Er2     V14    10.0   1_655     S
Er2     Er4    10.0   1_655     S
Er2     Er4    10.0   .     S
Er2     Er3    10.0   1_665     S
Er2     Er3    10.0   .     S
Er3     V19    10.0   .     S
Er3     V20    10.0   .     S
Er3     V16    10.0   .     S
Er3     Er4    10.0   1_545     S
Er3     Er4    10.0   .     S
Er3     V15    10.0   .     S
Er3     Er1    10.0   1_655     S
Er3     Er2    10.0   1_545     S
Er3     Er2    10.0   1_655     S
Er4     V20    10.0   .     S
Er4     V19    10.0   1_565     S
Er4     V15    10.0   1_565     S
Er4     Er3    10.0   1_565     S
Er4     V16    10.0   .     S
Er4     Er2    10.0   1_655     S
Er4     Er1    10.0   1_665     S
V5     Er21    10.0   .     S
V5     Er24    10.0   1_445     S
V5     V7    10.0   .     S
V5     V7    10.0   1_455     S
V5     V6    10.0   .     S
V5     V6    10.0   1_545     S
V5     V8    10.0   .     S
V5     V8    10.0   1_445     S
V5     Er9    10.0   1_556     S
V5     Er11    10.0   1_456     S
V6     Er22    10.0   .     S
V6     Er23    10.0   1_455     S
V6     V8    10.0   .     S
V6     V8    10.0   1_455     S
V6     V5    10.0   1_565     S
V6     V7    10.0   1_565     S
V6     V7    10.0   1_455     S
V6     Er10    10.0   1_556     S
V6     Er12    10.0   1_456     S
V7     Er23    10.0   .     S
V7     Er22    10.0   1_545     S
V7     V5    10.0   1_655     S
V7     V8    10.0   .     S
V7     V8    10.0   1_545     S
V7     V6    10.0   1_545     S
V7     V6    10.0   1_655     S
V7     Er11    10.0   1_556     S
V7     Er9    10.0   1_556     S
V8     Er24    10.0   .     S
V8     Er21    10.0   .     S
V8     V6    10.0   1_655     S
V8     V7    10.0   1_565     S
V8     V5    10.0   1_665     S
V8     Er12    10.0   1_556     S
V8     Er10    10.0   1_556     S
Er9     Er11    10.0   1_455     S
Er9     Er11    10.0   .     S
Er9     V13    10.0   .     S
Er9     V15    10.0   .     S
Er9     V5    10.0   1_554     S
Er9     V7    10.0   1_554     S
Er9     Er12    10.0   1_445     S
Er9     Er12    10.0   .     S
Er9     Er10    10.0   .     S
Er9     Er10    10.0   1_545     S
Er10     Er12    10.0   1_455     S
Er10     Er12    10.0   .     S
Er10     V14    10.0   .     S
Er10     V16    10.0   .     S
Er10     V6    10.0   1_554     S
Er10     V8    10.0   1_554     S
Er10     Er11    10.0   1_455     S
Er10     Er11    10.0   1_565     S
Er10     Er9    10.0   1_565     S
Er11     Er9    10.0   1_655     S
Er11     V15    10.0   .     S
Er11     V13    10.0   1_655     S
Er11     V7    10.0   1_554     S
Er11     V5    10.0   1_654     S
Er11     Er10    10.0   1_655     S
Er11     Er10    10.0   1_545     S
Er11     Er12    10.0   .     S
Er11     Er12    10.0   1_545     S
Er12     Er10    10.0   1_655     S
Er12     V16    10.0   .     S
Er12     V14    10.0   1_655     S
Er12     V8    10.0   1_554     S
Er12     V6    10.0   1_654     S
Er12     Er9    10.0   1_665     S
Er12     Er11    10.0   1_565     S
V13     Er2    10.0   1_545     S
V13     Er11    10.0   1_455     S
V13     V14    10.0   .     S
V13     V14    10.0   1_545     S
V13     V16    10.0   .     S
V13     V16    10.0   1_445     S
V13     V15    10.0   .     S
V13     V15    10.0   1_455     S
V14     Er2    10.0   .     S
V14     Er12    10.0   1_455     S
V14     V13    10.0   1_565     S
V14     V15    10.0   1_565     S
V14     V15    10.0   1_455     S
V14     V16    10.0   .     S
V14     V16    10.0   1_455     S
V15     Er4    10.0   1_545     S
V15     V16    10.0   .     S
V15     V16    10.0   1_545     S
V15     V14    10.0   1_545     S
V15     V14    10.0   1_655     S
V15     V13    10.0   1_655     S
V16     V15    10.0   1_565     S
V16     V13    10.0   1_665     S
V16     V14    10.0   1_655     S
V17     Er2    10.0   1_545     S
V17     V20    10.0   .     S
V17     V20    10.0   1_445     S
V17     V19    10.0   .     S
V17     V19    10.0   1_455     S
V17     V18    10.0   .     S
V17     V18    10.0   1_545     S
V17     Er21    10.0   .     S
V17     Er24    10.0   1_445     S
V18     Er2    10.0   .     S
V18     V19    10.0   1_565     S
V18     V19    10.0   1_455     S
V18     V20    10.0   .     S
V18     V20    10.0   1_455     S
V18     V17    10.0   1_565     S
V18     Er22    10.0   .     S
V18     Er23    10.0   1_455     S
V19     Er4    10.0   1_545     S
V19     V18    10.0   1_545     S
V19     V18    10.0   1_655     S
V19     V17    10.0   1_655     S
V19     V20    10.0   .     S
V19     V20    10.0   1_545     S
V19     Er23    10.0   .     S
V19     Er22    10.0   1_545     S
V20     V17    10.0   1_665     S
V20     V18    10.0   1_655     S
V20     V19    10.0   1_565     S
V20     Er24    10.0   .     S
V20     Er21    10.0   .     S
Er21     Er24    10.0   1_445     S
Er21     Er24    10.0   .     S
Er21     Er22    10.0   1_545     S
Er21     Er22    10.0   .     S
Er21     Er23    10.0   1_455     S
Er21     Er23    10.0   .     S
Er22     V7    10.0   1_565     S
Er22     Er23    10.0   1_455     S
Er22     Er23    10.0   1_565     S
Er22     V19    10.0   1_565     S
Er22     Er21    10.0   1_565     S
Er22     Er24    10.0   1_455     S
Er22     Er24    10.0   .     S
Er23     V6    10.0   1_655     S
Er23     Er22    10.0   1_655     S
Er23     Er22    10.0   1_545     S
Er23     V18    10.0   1_655     S
Er23     Er24    10.0   1_545     S
Er23     Er24    10.0   .     S
Er23     Er21    10.0   1_655     S
Er24     V5    10.0   1_665     S
Er24     Er21    10.0   1_665     S
Er24     V17    10.0   1_665     S
Er24     Er23    10.0   1_565     S
Er24     Er22    10.0   1_655     S
